Circuit: * C:\users\puppygirl-dirac\Documents\coursework\spring_2026\engs31\final_project\rtl_diagrams\Draft1.asc

Direct Newton iteration failed to find .op point.  (Use ".option noopiter" to skip.)
Starting Gmin stepping
Gmin = 10
Gmin = 1.07374
vernier = 0.5
vernier = 0.25
vernier = 0.125
Gmin = 1.02385
vernier = 0.0625
vernier = 0.03125
vernier = 0.015625
Gmin = 1.01955
vernier = 0.0078125
vernier = 0.00390625
Gmin = 1.0126
vernier = 0.00195313
vernier = 0.00260417
vernier = 0.00130208
Gmin = 1.00915
vernier = 0.00173611
vernier = 0.000868055
Gmin = 1.00685
vernier = 0.00115741
vernier = 0.000578703
Gmin = 1.0054
vernier = 0.000771604
vernier = 0.000578703
vernier = 0.000434027
Gmin = 1.00443
vernier = 0.000578703
vernier = 0.000434027
Gmin = 0
Gmin = 0
Gmin stepping failed

Starting source stepping with srcstepmethod=0
Source Step = 3.0303%
Source Step = 33.3333%
Source Step = 58.3333%
Source Step = 65.9091%
Source Step = 73.4848%
Source Step = 81.0606%
Source Step = 88.6364%
Source Step = 91.1458%
Source Step = 91.6193%
Source Step = 92.0928%
Source Step = 92.5663%
Source Step = 93.0398%
vernier = 0.0234375
Source Step = 93.608%
Source Step = 94.3182%
Source Step = 95.0284%
Source Step = 95.7386%
Source Step = 96.4489%
vernier = 0.0351563
Source Step = 97.2656%
Source Step = 98.331%
Source Step = 99.3963%
Source stepping succeeded in finding the operating point.

Heightened Def Con from 2.30771e-010 to 4.23077e-009

Date: Tue Jun 02 01:46:22 2026
Total elapsed time: 1.749 seconds.

tnom = 27
temp = 27
method = modified trap
totiter = 9787
traniter = 2812
tranpoints = 1234
accept = 1169
rejected = 66
matrix size = 142
fillins = 312
solver = Normal
Thread vector: 15.6/11.4[2] 3.9/10.1[1] 4.5/9.8[1] 1.2/5.9[1]  2592/500
Matrix Compiler1: 24.74 KB object code size  5.9/2.6/[1.3]
Matrix Compiler2: 17.10 KB object code size  4.9/3.9/[1.8]

